x0310_0A-x0556_0A_229_B1X_rgrp-4
     RDKit          3D

 15 15  0  0  0  0  0  0  0  0999 V2000
   12.0410   16.2040   22.1610 N   0  0  0  0  0  0  0  0  0  0  0  0
   12.1570   15.0800   22.4030 C   0  0  0  0  0  0  0  0  0  0  0  0
   12.2060   13.6570   22.6980 C   0  0  0  0  0  0  0  0  0  0  0  0
   11.0360   13.2460   23.5490 C   0  0  0  0  0  0  0  0  0  0  0  0
   10.8120   13.8600   24.5880 O   0  0  0  0  0  0  0  0  0  0  0  0
   10.2810   12.1740   23.0940 N   0  0  0  0  0  0  0  0  0  0  0  0
    9.2130   11.6830   23.8760 C   0  0  0  0  0  0  0  0  0  0  0  0
    8.4500   12.6880   24.4480 C   0  0  0  0  0  0  0  0  0  0  0  0
    7.3780   12.3870   25.2690 C   0  0  0  0  0  0  0  0  0  0  0  0
    7.0740   11.0750   25.5150 C   0  0  0  0  0  0  0  0  0  0  0  0
    5.9040   10.8270   26.4320 C   0  0  0  0  0  0  0  0  0  0  0  0
    5.9150    9.7440   27.2610 N   0  0  0  0  0  0  0  0  0  0  0  0
    4.9480   11.5890   26.4840 O   0  0  0  0  0  0  0  0  0  0  0  0
    7.7840   10.0480   24.9690 N   0  0  0  0  0  0  0  0  0  0  0  0
    8.8440   10.3680   24.1560 C   0  0  0  0  0  0  0  0  0  0  0  0
  1  2  3  0
  2  3  1  0
  3  4  1  0
  4  5  2  0
  4  6  1  0
  6  7  1  0
  7  8  2  0
  8  9  1  0
  9 10  2  0
 10 11  1  0
 11 12  1  0
 11 13  2  0
 10 14  1  0
 14 15  2  0
 15  7  1  0
A    1
 N1 
A    2
 C1 
A    3
 C2 
A    4
 C3 
A    5
 O1 
A    6
 N2 
A    7
 C4 
A    8
 C5 
A    9
 C6 
A   10
 C7 
A   11
 C8 
A   12
 N3 
A   13
 O2 
A   14
 N4 
A   15
 C9 
M  END
>  <similarity>  (2) 
1.0

>  <smiles>  (2) 
N#CCC(=O)Nc1ccc(C(N)=O)nc1

>  <cmpd_id>  (2) 
ENAMINE:Z1688566756

>  <used_subnode>  (2) 
N#CCC(N)=O

>  <used_synthon>  (2) 
[Xe]c1cccnc1

>  <ref_subnode>  (2) 
N#CCC(N)=O

>  <ref_synthon>  (2) 
[Xe]n1cccn1

>  <fragmentA>  (2) 
x0310_0A

>  <fragmentB>  (2) 
x0556_0A

>  <HA>  (2) 
15

>  <HBD>  (2) 
2

>  <HBA>  (2) 
4

>  <MW>  (2) 
204.064725496

>  <TPSA>  (2) 
108.86999999999999

>  <LogP>  (2) 
0.03267999999999971

>  <RBs>  (2) 
3

>  <G_bound>  (2) 
-6.147988603887065

>  <G_unbound>  (2) 
0.49450099410474374

>  <deltaG>  (2) 
-6.642489597991808

>  <comRMSD>  (2) 
0.3791155970169532

>  <substructure_overlap_check>  (2) 
True

>  <energy_ratio_check>  (2) 
True

>  <const_energy/unconst_energy>  (2) 
2.8301086937488797

>  <sucos>  (2) 
0.5983238281374272

>  <interactions>  (2) 
Hydrophobic_PRO-107,Hydrophobic_HIS-21,HBDonor_SER-105,HBDonor_SER-125

>  <total_num_ints>  (2) 
4

>  <total_num_ints_nonhyd>  (2) 
2

>  <num_uniq_frag_ints>  (2) 
8

>  <num_repl_uniq_ints>  (2) 
4

>  <num_uniq_ints_lost>  (2) 
4

>  <num_new_uniq_ints>  (2) 
0

>  <int_check>  (2) 
True

>  <prop_maintained_ints>  (2) 
0.5

>  <ref_url>  (2) 
https://pubs.acs.org/doi/10.1021/acs.jcim.3c00276?fig=tgr1&ref=pdf

>  <submitter_name>  (2) 
Steph Wills

>  <submitter_institution>  (2) 
University of Oxford

>  <submitter_email>  (2) 
stephanie.wills@balliol.ox.ac.uk

>  <generation_date>  (2) 
2024-06-03

>  <method>  (2) 
FragNetv2

>  <original SMILES>  (2) 
N#CCC(=O)Nc1ccc(C(N)=O)nc1

>  <original_name>  (2) 
x0310_0A-x0556_0A_229_B1X_rgrp-4

>  <ref_mols>  (2) 
x0310_0A,x0556_0A

>  <ref_pdb>  (2) 
x0310_0A

>  <rationale>  (2) 
FragNet: 1 round bioisosteric merging incl N#CCC(N)=O and [Xe]c1cccnc1 replacing [Xe]n1cccn1

